2
Properties=species:S:1:pos:R:3:initial_magmoms:R:1:forces:R:3 energy=0.0 free_energy=0.0 pbc="F F F"
Si       0.00000000       0.00000000       2.50000000       1.00000000       0.00000000       0.00000000       0.00000000
Si       0.00000000       0.00000000      -2.50000000       1.00000000       0.00000000       0.00000000       0.00000000
